LTspice 24.0.12 for Windows
Circuit: * C:\Users\sofia\OneDrive - FCT NOVA\Documentos\PlatformIO\Projects\voice-detector\Draft2.asc
Start Time: Thu Nov 21 10:09:56 2024
solver = Normal
Maximum thread count: 16
tnom = 27
temp = 27
method = modified trap
WARNING: Less than two connections to node nc_01.  This node is used by v3.
Direct Newton iteration for .op point succeeded.
Total elapsed time: 0.359 seconds.

