Circuit: * Z:\home\porcaontas\Uni\MEEC\SM1\EMS\Pratica\FinalLab\voice-detector\ltspice\sallen-key.asc

Direct Newton iteration for .op point succeeded.

Date: Thu Nov 28 14:47:41 2024
Total elapsed time: 0.225 seconds.

tnom = 27
temp = 27
method = trap
totiter = 30
traniter = 0
tranpoints = 0
accept = 0
rejected = 0
matrix size = 18
fillins = 14
solver = Normal
Matrix Compiler1:      85 opcodes
Matrix Compiler2:     141 opcodes
